This is file <instructions.txt>

New line. Change made in sample-branch

Another change made on Github.
