This is file <instructions.txt>

New line. Change made in sample-branch
